4
Lattice="4.57043807 8.504e-06 0.0 -5.193e-06 2.495790521 0.0 0.0 0.0 24.038174911" Properties=species:S:1:pos:R:3:Z:I:1 pbc="F F F"
N       3.00503088       1.87056124      11.90590979        7 
N       1.57198925       1.87056521      11.90593770        7 
B       3.72131032       0.62267451      11.90665219        5 
B       0.85568101       0.62267824      11.90667613        5 
